4
9
.tran 100u 100m
4
1
/Vctrl
V
1
/Vldr
V
1
/Vs
V
1
/Vsp
V
2
.dc V6 100m 25 100m
4
1
/Vldr
V
1
/Vs
V
1
/Vsp
V
1
/Vu3+
V
9
.tran 100u 100m
4
1
/PWB
V
1
/Vldr
V
1
/Vs
V
1
/Vsp
V
9
.tran 100u 100m
3
1
/Vr2r
V
1
/Vsp
V
1
/Vu2+
V
