2
5
.op
0
2
.dc VBT2 0 12 50m
2
2
BT2
I
1
/Vs
V
