3
9
.tran 2m 100m
2
1
/C
V
1
/D
V
9
.tran 100u 100m
2
1
/Vr2r
V
1
/Vs
V
840970272

0
