* Resistor variável por tensão: 10kohms/V
*
.SUBCKT VC_RES1_10K	1 2	4 5
   ERES	1	3	VALUE = { I(VSENSE)*10K*V(4,5) }
   VSENSE	3	2	DC	0V
.ENDS
